!B3LYP DEF2-QZVPP D4 KEEPDENS

%scf
convergence tight
end

* xyz 0 1
  C   -4.88569336155230      2.98207060676121      0.04333537261272
  C   -6.14959695789773      2.35864301241116      0.02758592588736
  C   -6.25559380286015      0.96845232728990     -0.00121869885868
  C   -5.11290643775582      0.16234415122468     -0.01440284580436
  C   -3.85586007858743      0.77497453451715      0.00208204091935
  C   -3.73800009771254      2.16417133781313      0.03090801634500
  H   -7.05256446988853      2.97652953111245      0.03476026878305
  H   -7.24815752893036      0.50936420781894     -0.01176333836965
  H   -5.20066374355790     -0.92621478272232     -0.03568755561573
  H   -2.94935247147236      0.16323446923219     -0.00589977089820
  H   -2.74782466200470      2.62955680400795      0.04054469739011
  N   -4.77400026474504      4.36582607320833      0.02173325533785
  H   -5.57985384924347      4.88619583261605      0.34871705822918
  H   -3.89604227379165      4.75045189470918      0.35073557404198
*